Version 4
SHEET 1 1164 820
WIRE 64 -80 48 -80
WIRE 832 -16 832 -48
WIRE 1040 -16 1040 -64
WIRE 784 0 768 0
WIRE 784 48 768 48
WIRE 768 80 768 48
WIRE 832 80 832 64
WIRE 64 96 64 -80
WIRE 1040 176 1040 64
WIRE 64 240 64 176
WIRE 832 256 832 160
WIRE 832 256 736 256
WIRE 944 256 832 256
WIRE 992 256 944 256
WIRE 736 272 736 256
WIRE 688 288 640 288
WIRE 832 288 832 256
WIRE 688 336 672 336
WIRE 1040 352 1040 272
WIRE 672 368 672 336
WIRE 736 368 736 352
WIRE 736 368 672 368
WIRE 736 384 736 368
WIRE 832 384 832 352
WIRE 64 448 64 320
WIRE 64 448 32 448
WIRE 352 672 352 624
WIRE -256 688 -256 672
WIRE 352 784 352 752
WIRE 640 784 640 720
WIRE -256 800 -256 768
FLAG 48 -80 IN
IOPIN 48 -80 In
FLAG 32 448 G
IOPIN 32 448 In
FLAG 352 784 0
FLAG 640 720 G
IOPIN 640 720 Out
FLAG 640 784 0
FLAG 352 624 VCC
IOPIN 352 624 In
FLAG 832 -48 VCC
IOPIN 832 -48 Out
FLAG 1040 -64 IN
IOPIN 1040 -64 Out
FLAG 1040 352 G
IOPIN 1040 352 Out
FLAG 832 384 0
FLAG 640 288 RESET
IOPIN 640 288 In
FLAG 736 384 0
FLAG 944 256 Vc1
FLAG 768 0 START
IOPIN 768 0 In
FLAG 768 80 0
FLAG -256 800 0
FLAG -256 672 START
IOPIN -256 672 Out
SYMBOL voltage 64 224 R0
SYMATTR InstName V1
SYMATTR Value 5V
SYMBOL voltage 64 80 R0
WINDOW 123 0 0 Left 0
WINDOW 39 0 0 Left 0
SYMATTR InstName V2
SYMATTR Value SINE(0 0.25 60)
SYMBOL voltage 352 656 R0
WINDOW 123 0 0 Left 0
WINDOW 39 0 0 Left 0
SYMATTR InstName V3
SYMATTR Value 12V
SYMBOL res 816 64 R0
SYMATTR InstName R1
SYMATTR Value 27.4k
SYMBOL cap 816 288 R0
SYMATTR InstName C1
SYMATTR Value 470µ
SYMBOL nmos 992 176 R0
SYMATTR InstName M1
SYMATTR Value Si7386DP
SYMBOL res 1024 -32 R0
SYMATTR InstName RL1
SYMATTR Value 50k
SYMBOL sw 736 368 M180
SYMATTR InstName S1
SYMBOL sw 832 80 M180
SYMATTR InstName S2
SYMBOL voltage -256 672 R0
WINDOW 123 0 0 Left 0
WINDOW 39 0 0 Left 0
SYMATTR InstName V4
SYMATTR Value PULSE(0 5 100m 0.0001 0.0001 10)
TEXT -56 72 Left 2 ;Fonte\nTeste
TEXT 536 184 Left 2 ;tau = 12.84\n2.5 V em 3 segundos
TEXT -752 432 Left 2 !.tran 12
TEXT -760 512 Left 2 !.model SW SW(Ron=1 Roff=100Meg Vt=.7)
TEXT -752 472 Left 2 !.ic V(Vc1)=0
RECTANGLE Normal 272 368 -96 16 2
