Version 4
SHEET 1 2664 948
WIRE 928 -896 928 -960
WIRE 1424 -896 1424 -960
WIRE 1632 -896 1632 -960
WIRE 2000 -848 1760 -848
WIRE 2368 -848 2144 -848
WIRE 1200 -832 1200 -864
WIRE 1248 -832 1200 -832
WIRE 1312 -816 1312 -832
WIRE 1200 -784 1200 -832
WIRE 1168 -768 1104 -768
WIRE 1424 -752 1424 -816
WIRE 1424 -752 1232 -752
WIRE 928 -736 928 -816
WIRE 1024 -736 928 -736
WIRE 1168 -736 1024 -736
WIRE 1632 -736 1632 -816
WIRE 1584 -720 1568 -720
WIRE 2208 -720 2208 -752
WIRE 2256 -720 2208 -720
WIRE 1200 -704 1200 -720
WIRE 1824 -704 1824 -736
WIRE 1872 -704 1824 -704
WIRE 2320 -704 2320 -720
WIRE 1936 -688 1936 -704
WIRE 1584 -672 1568 -672
WIRE 2208 -672 2208 -720
WIRE 928 -656 928 -736
WIRE 1824 -656 1824 -704
WIRE 2144 -656 2144 -848
WIRE 2176 -656 2144 -656
WIRE 1568 -640 1568 -672
WIRE 1760 -640 1760 -848
WIRE 1792 -640 1760 -640
WIRE 2368 -640 2368 -848
WIRE 2368 -640 2240 -640
WIRE 2432 -640 2368 -640
WIRE 1920 -624 1856 -624
WIRE 2000 -624 2000 -848
WIRE 2000 -624 1984 -624
WIRE 2096 -624 2000 -624
WIRE 2176 -624 2096 -624
WIRE 1104 -608 1104 -768
WIRE 1104 -608 1088 -608
WIRE 1632 -608 1632 -656
WIRE 1792 -608 1632 -608
WIRE 2000 -592 2000 -624
WIRE 2096 -592 2096 -624
WIRE 1632 -576 1632 -608
WIRE 2208 -576 2208 -608
WIRE 1632 -560 1632 -576
WIRE 1824 -560 1824 -592
WIRE 2368 -560 2368 -640
WIRE 1200 -544 1200 -576
WIRE 1248 -544 1200 -544
WIRE 1312 -528 1312 -544
WIRE 1200 -496 1200 -544
WIRE 1424 -496 1424 -752
WIRE 1584 -496 1424 -496
WIRE 2368 -496 2368 -512
WIRE 928 -480 928 -576
WIRE 1024 -480 928 -480
WIRE 1168 -480 1024 -480
WIRE 2000 -480 2000 -528
WIRE 2096 -480 2096 -512
WIRE 1424 -464 1424 -496
WIRE 1424 -464 1232 -464
WIRE 1104 -448 1104 -608
WIRE 1168 -448 1104 -448
WIRE 2368 -432 2368 -496
WIRE 1632 -416 1632 -480
WIRE 928 -400 928 -480
WIRE 1200 -400 1200 -432
WIRE 256 -352 240 -352
WIRE 2368 -320 2368 -352
WIRE 928 -272 928 -320
WIRE 256 -240 256 -352
WIRE 928 -144 928 -192
WIRE 256 -80 256 -160
WIRE 256 80 256 0
WIRE 256 256 256 160
WIRE 256 256 240 256
WIRE 80 752 80 736
WIRE 960 816 960 768
WIRE 1136 816 1136 768
WIRE 80 864 80 832
WIRE 960 928 960 896
WIRE 1136 928 1136 896
WIRE 1248 928 1248 864
FLAG 960 928 0
FLAG 1248 864 G
IOPIN 1248 864 Out
FLAG 1248 928 0
FLAG 960 768 VCC
IOPIN 960 768 In
FLAG 1136 928 0
FLAG 1136 768 VEE
IOPIN 1136 768 In
FLAG 240 -352 IN
IOPIN 240 -352 In
FLAG 240 256 G
IOPIN 240 256 In
FLAG 1200 -400 0
FLAG 928 -144 0
FLAG 1200 -704 0
FLAG 928 -960 VCC
IOPIN 928 -960 Out
FLAG 1424 -960 VCC
IOPIN 1424 -960 Out
FLAG 1200 -864 VCC
IOPIN 1200 -864 Out
FLAG 1088 -608 IN
IOPIN 1088 -608 Out
FLAG 2000 -480 0
FLAG 2096 -480 0
FLAG 1824 -560 0
FLAG 2208 -576 0
FLAG 1632 -416 0
FLAG 1632 -960 VCC
IOPIN 1632 -960 Out
FLAG 2368 -320 0
FLAG 1312 -816 0
FLAG 1200 -576 VCC
IOPIN 1200 -576 Out
FLAG 1312 -528 0
FLAG 1824 -736 VCC
IOPIN 1824 -736 Out
FLAG 1936 -688 0
FLAG 2208 -752 VCC
IOPIN 2208 -752 Out
FLAG 2320 -704 0
FLAG 2432 -640 WINDOW_OUT
IOPIN 2432 -640 In
FLAG 1568 -720 START
IOPIN 1568 -720 In
FLAG 1568 -640 0
FLAG 80 864 0
FLAG 80 736 START
IOPIN 80 736 Out
FLAG 1024 -736 Vt1
FLAG 1024 -480 Vt2
SYMBOL voltage 960 800 R0
SYMATTR InstName V3
SYMATTR Value 12V
SYMBOL voltage 1136 912 R180
WINDOW 0 24 96 Left 2
WINDOW 3 24 16 Left 2
SYMATTR InstName V4
SYMATTR Value 12V
SYMBOL voltage 256 64 R0
SYMATTR InstName V1
SYMATTR Value 5V
SYMBOL voltage 256 -96 R0
WINDOW 123 0 0 Left 0
WINDOW 39 0 0 Left 0
WINDOW 3 -19 101 Left 2
SYMATTR Value SINE(0 0.03 20k)
SYMATTR InstName V2
SYMBOL voltage 256 -256 R0
WINDOW 3 -36 98 Left 2
WINDOW 123 0 0 Left 0
WINDOW 39 0 0 Left 0
SYMATTR Value PULSE(0 -0.4 20m 0.001 0.001 3)
SYMATTR InstName V5
SYMBOL res 912 -912 R0
SYMATTR InstName R1
SYMATTR Value 20k
SYMBOL res 912 -672 R0
SYMATTR InstName R2
SYMATTR Value 1.49k
SYMBOL res 912 -416 R0
SYMATTR InstName R3
SYMATTR Value 14.3k
SYMBOL AutoGenerated\\TLV1701 1200 -752 R0
SYMATTR InstName U1
SYMBOL AutoGenerated\\TLV1701 1200 -464 R0
SYMATTR InstName U2
SYMBOL res 1408 -912 R0
SYMATTR InstName R4
SYMATTR Value 12k
SYMBOL OpAmps\\LTC6244 1824 -624 R0
SYMATTR InstName U3
SYMBOL diode 1920 -608 R270
WINDOW 0 32 32 VTop 2
WINDOW 3 0 32 VBottom 2
SYMATTR InstName D1
SYMBOL cap 1984 -592 R0
SYMATTR InstName C1
SYMATTR Value 2.2µ
SYMBOL res 2080 -608 R0
SYMATTR InstName R5
SYMATTR Value 182k
SYMBOL OpAmps\\LTC6244 2208 -640 R0
SYMATTR InstName U4
SYMBOL nmos 1584 -576 R0
SYMATTR InstName M1
SYMATTR Value Si7386DP
SYMBOL res 1616 -912 R0
SYMATTR InstName R6
SYMATTR Value 10k
SYMBOL LED 2352 -560 R0
SYMATTR InstName D2
SYMBOL res 2352 -448 R0
SYMATTR InstName R7
SYMATTR Value 1k
SYMBOL cap 1312 -848 R90
WINDOW 0 0 32 VBottom 2
WINDOW 3 32 32 VTop 2
SYMATTR InstName C2
SYMATTR Value 10µ
SYMBOL cap 1312 -560 R90
WINDOW 0 0 32 VBottom 2
WINDOW 3 32 32 VTop 2
SYMATTR InstName C3
SYMATTR Value 10µ
SYMBOL cap 1936 -720 R90
WINDOW 0 0 32 VBottom 2
WINDOW 3 32 32 VTop 2
SYMATTR InstName C4
SYMATTR Value 10µ
SYMBOL cap 2320 -736 R90
WINDOW 0 0 32 VBottom 2
WINDOW 3 32 32 VTop 2
SYMATTR InstName C5
SYMATTR Value 10µ
SYMBOL sw 1632 -640 M180
SYMATTR InstName S1
SYMBOL voltage 80 736 R0
WINDOW 123 0 0 Left 0
WINDOW 39 0 0 Left 0
SYMATTR InstName V6
SYMATTR Value PULSE(0 5 1m 0.0001 0.0001 10)
SYMBOL res 912 -288 R0
SYMATTR InstName R8
SYMATTR Value 28
TEXT 136 -200 Left 2 ;Fonte\nTeste
TEXT 96 352 Left 2 !.tran 40m
TEXT 88 432 Left 2 !.model SW SW(Ron=.1 Roff=100Meg Vt=.7 vh =.1)
TEXT 96 392 Left 2 !.ic V(Vc1)=0
RECTANGLE Normal 80 -288 528 208 2
