Version 4
SHEET 1 880 680
WIRE -1808 -368 -1824 -368
WIRE -1808 -304 -1808 -368
WIRE -2096 -256 -2128 -256
WIRE -2096 -192 -2096 -256
WIRE -864 -192 -864 -240
WIRE -208 -192 -208 -240
WIRE -144 -176 -160 -176
WIRE -144 -128 -160 -128
WIRE -512 -112 -512 -240
WIRE -144 -96 -144 -128
WIRE -864 -80 -864 -112
WIRE -672 -80 -864 -80
WIRE -864 -64 -864 -80
WIRE -208 -64 -208 -112
WIRE -416 -32 -464 -32
WIRE -368 -32 -416 -32
WIRE -912 16 -960 16
WIRE -512 32 -512 -16
WIRE -464 32 -512 32
WIRE -368 32 -368 -32
WIRE -368 32 -400 32
WIRE -208 32 -208 16
WIRE -208 32 -368 32
WIRE -512 64 -512 32
WIRE -208 64 -208 32
WIRE -864 80 -864 32
WIRE -112 80 -160 80
WIRE -144 128 -160 128
WIRE -672 144 -672 -80
WIRE -560 144 -672 144
WIRE -208 160 -208 144
WIRE -144 160 -144 128
WIRE -144 160 -208 160
WIRE -208 176 -208 160
WIRE -512 224 -512 160
WIRE -560 304 -672 304
WIRE -864 352 -864 304
WIRE -512 400 -512 320
WIRE -1936 416 -1936 400
WIRE -1552 464 -1552 368
WIRE -864 464 -864 432
WIRE -672 464 -672 304
WIRE -672 464 -864 464
WIRE -864 480 -864 464
WIRE -1936 528 -1936 496
WIRE -512 528 -512 464
WIRE -912 560 -960 560
WIRE -1552 576 -1552 544
WIRE -1392 576 -1392 512
WIRE -864 624 -864 576
WIRE -512 640 -512 608
FLAG -960 560 WINDOW_OUT
IOPIN -960 560 Out
FLAG -960 16 RIPPLE_OUT
IOPIN -960 16 Out
FLAG -864 304 VCC
IOPIN -864 304 Out
FLAG -864 624 0
FLAG -864 -240 VCC
IOPIN -864 -240 Out
FLAG -864 80 0
FLAG -512 640 0
FLAG -208 176 0
FLAG -416 -32 Vc1
FLAG -512 -240 VCC
IOPIN -512 -240 Out
FLAG -208 -240 VCC
IOPIN -208 -240 Out
FLAG -144 -176 START
IOPIN -144 -176 In
FLAG -144 -96 0
FLAG -112 80 RESET
IOPIN -112 80 In
FLAG -1552 576 0
FLAG -1392 512 G
IOPIN -1392 512 Out
FLAG -1392 576 0
FLAG -1552 368 VCC
IOPIN -1552 368 In
FLAG -1936 528 0
FLAG -1936 400 START
IOPIN -1936 400 Out
FLAG -2096 -112 0
FLAG -1808 -224 0
FLAG -1824 -368 RIPPLE_OUT
IOPIN -1824 -368 In
FLAG -2128 -256 WINDOW_OUT
IOPIN -2128 -256 In
SYMBOL nmos -560 64 R0
SYMATTR InstName M1
SYMATTR Value Si7386DP
SYMBOL nmos -912 480 R0
SYMATTR InstName M2
SYMATTR Value Si7386DP
SYMBOL res -880 336 R0
SYMATTR InstName R1
SYMATTR Value 10k
SYMBOL nmos -912 -64 R0
SYMATTR InstName M3
SYMATTR Value Si7386DP
SYMBOL res -880 -208 R0
SYMATTR InstName R2
SYMATTR Value 10k
SYMBOL nmos -560 224 R0
SYMATTR InstName M4
SYMATTR Value Si7386DP
SYMBOL LED -528 400 R0
SYMATTR InstName D1
SYMBOL res -528 512 R0
SYMATTR InstName R3
SYMATTR Value 850
SYMBOL res -192 -80 M0
SYMATTR InstName R4
SYMATTR Value 48.7k
SYMBOL cap -400 48 M270
WINDOW 0 32 32 VTop 2
WINDOW 3 0 32 VBottom 2
SYMATTR InstName C1
SYMATTR Value 470µ
SYMBOL nmos -464 -112 M0
SYMATTR InstName M5
SYMATTR Value Si7386DP
SYMBOL sw -208 160 R180
SYMATTR InstName S1
SYMBOL sw -208 -96 R180
SYMATTR InstName S2
SYMBOL voltage -1552 448 R0
SYMATTR InstName V1
SYMATTR Value 12V
SYMBOL voltage -1936 400 R0
WINDOW 123 0 0 Left 0
WINDOW 39 0 0 Left 0
SYMATTR InstName V2
SYMATTR Value PULSE(0 5 100m 0.0001 0.0001 10)
SYMBOL voltage -2096 -208 R0
WINDOW 123 0 0 Left 0
WINDOW 39 0 0 Left 0
SYMATTR InstName V3
SYMATTR Value PULSE(0 0 3 0.001 0.001 10)
SYMBOL voltage -1808 -320 R0
WINDOW 123 0 0 Left 0
WINDOW 39 0 0 Left 0
SYMATTR InstName V4
SYMATTR Value PULSE(0 0 3 0.001 0.001 20)
TEXT -152 -8 Left 2 ;tau = 22.68\n2.5 V em 6 segundos
TEXT -1760 -8 Left 2 !.tran 12
TEXT -1768 72 Left 2 !.model SW SW(Ron=1 Roff=100Meg Vt=.7)
TEXT -1760 32 Left 2 !.ic V(Vc1)=0
