Version 4
SHEET 1 1824 840
WIRE -224 -272 -240 -272
WIRE 480 -176 480 -224
WIRE -224 -160 -224 -272
WIRE 1184 -128 944 -128
WIRE 1552 -128 1328 -128
WIRE 480 -32 480 -96
WIRE -224 0 -224 -80
WIRE 1392 0 1392 -32
WIRE 1440 0 1392 0
WIRE 1008 16 1008 -16
WIRE 1056 16 1008 16
WIRE 1504 16 1504 0
WIRE 752 32 752 0
WIRE 800 32 752 32
WIRE 1120 32 1120 16
WIRE 864 48 864 32
WIRE 1392 48 1392 0
WIRE 1008 64 1008 16
WIRE 1328 64 1328 -128
WIRE 1360 64 1328 64
WIRE 752 80 752 32
WIRE 944 80 944 -128
WIRE 976 80 944 80
WIRE 1552 80 1552 -128
WIRE 1552 80 1424 80
WIRE 1616 80 1552 80
WIRE 480 96 480 48
WIRE 560 96 480 96
WIRE 720 96 560 96
WIRE 1104 96 1040 96
WIRE 1184 96 1184 -128
WIRE 1184 96 1168 96
WIRE 1280 96 1184 96
WIRE 1360 96 1280 96
WIRE 976 112 784 112
WIRE 592 128 560 128
WIRE 672 128 656 128
WIRE 720 128 672 128
WIRE 1184 128 1184 96
WIRE 1280 128 1280 96
WIRE 1392 144 1392 112
WIRE -224 160 -224 80
WIRE 1008 160 1008 128
WIRE 1552 160 1552 80
WIRE 480 176 480 96
WIRE 752 176 752 144
WIRE 672 192 672 128
WIRE 1184 240 1184 192
WIRE 1280 240 1280 208
WIRE 1552 288 1552 224
WIRE 480 304 480 256
WIRE 672 304 672 272
WIRE -224 336 -224 240
WIRE -224 336 -240 336
WIRE 1552 400 1552 368
WIRE 480 688 480 640
WIRE 656 688 656 640
WIRE 480 800 480 768
WIRE 656 800 656 768
WIRE 768 800 768 736
FLAG 480 800 0
FLAG 768 736 G
IOPIN 768 736 Out
FLAG 768 800 0
FLAG 480 640 VCC
IOPIN 480 640 In
FLAG 656 800 0
FLAG 656 640 VEE
IOPIN 656 640 In
FLAG 1184 240 0
FLAG 1280 240 0
FLAG 1008 160 0
FLAG 1392 144 0
FLAG 480 304 0
FLAG 480 -224 VCC
IOPIN 480 -224 Out
FLAG 560 128 IN
IOPIN 560 128 Out
FLAG 672 304 0
FLAG 752 176 0
FLAG 1552 400 0
FLAG 752 0 VCC
IOPIN 752 0 Out
FLAG 864 48 0
FLAG 1008 -16 VCC
IOPIN 1008 -16 Out
FLAG 1120 32 0
FLAG 1392 -32 VCC
IOPIN 1392 -32 Out
FLAG 1504 16 0
FLAG 1616 80 RIPPLE_OUT
IOPIN 1616 80 In
FLAG -240 -272 IN
IOPIN -240 -272 In
FLAG -240 336 G
IOPIN -240 336 In
FLAG 560 96 Vrmax
FLAG 672 128 V+
SYMBOL voltage 480 672 R0
SYMATTR InstName V3
SYMATTR Value 12V
SYMBOL voltage 656 784 R180
WINDOW 0 24 96 Left 2
WINDOW 3 24 16 Left 2
SYMATTR InstName V4
SYMATTR Value 12V
SYMBOL OpAmps\\LTC6244 1008 96 R0
SYMATTR InstName U1
SYMBOL diode 1104 112 R270
WINDOW 0 32 32 VTop 2
WINDOW 3 0 32 VBottom 2
SYMATTR InstName D1
SYMBOL cap 1168 128 R0
SYMATTR InstName C1
SYMATTR Value 2.2µ
SYMBOL res 1264 112 R0
SYMATTR InstName R1
SYMATTR Value 182k
SYMBOL OpAmps\\LTC6244 1392 80 R0
SYMATTR InstName U2
SYMBOL res 464 160 R0
SYMATTR InstName R2
SYMATTR Value 500
SYMBOL res 464 -192 R0
SYMATTR InstName R3
SYMATTR Value 590k
SYMBOL cap 656 112 R90
WINDOW 0 0 32 VBottom 2
WINDOW 3 32 32 VTop 2
SYMATTR InstName C2
SYMATTR Value 10µ
SYMBOL res 656 176 R0
SYMATTR InstName R4
SYMATTR Value 1k
SYMBOL LED 1536 160 R0
SYMATTR InstName D2
SYMBOL OpAmps\\LTC6244 752 112 R0
SYMATTR InstName U3
SYMBOL res 1536 272 R0
SYMATTR InstName R5
SYMATTR Value 1k
SYMBOL cap 864 16 R90
WINDOW 0 0 32 VBottom 2
WINDOW 3 32 32 VTop 2
SYMATTR InstName C3
SYMATTR Value 10µ
SYMBOL cap 1120 0 R90
WINDOW 0 0 32 VBottom 2
WINDOW 3 32 32 VTop 2
SYMATTR InstName C4
SYMATTR Value 10µ
SYMBOL cap 1504 -16 R90
WINDOW 0 0 32 VBottom 2
WINDOW 3 32 32 VTop 2
SYMATTR InstName C5
SYMATTR Value 10µ
SYMBOL res 464 -48 R0
SYMATTR InstName R6
SYMATTR Value 9k
SYMBOL voltage -224 144 R0
SYMATTR InstName V1
SYMATTR Value 5V
SYMBOL voltage -224 -16 R0
WINDOW 123 0 0 Left 0
WINDOW 39 0 0 Left 0
WINDOW 3 -19 101 Left 2
SYMATTR Value SINE(0 0.009 60)
SYMATTR InstName V2
SYMBOL voltage -224 -176 R0
WINDOW 123 0 0 Left 0
WINDOW 39 0 0 Left 0
WINDOW 3 -19 101 Left 2
SYMATTR Value SINE(0 0.010 60 50m)
SYMATTR InstName V5
TEXT -344 -120 Left 2 ;Fonte\nTeste
TEXT -400 824 Left 2 !.tran 100m
RECTANGLE Normal -400 -208 48 288 2
